  Page 1                                    Sat Jun 03 22:49:38 2017

  ******************************************************************
  *                           E P A N E T                          *
  *                   Hydraulic and Water Quality                  *
  *                   Analysis for Pipe Networks                   *
  *                         Version 2.00.12                        *
  ******************************************************************
  
  Analysis begun Sat Jun 03 22:49:38 2017

  WARNING: Negative pressures at 0:00:00 hrs.
  
  WARNING: Negative pressures at 0:00:10 hrs.
  
  Analysis ended Sat Jun 03 22:49:38 2017
