  Page 1                                    Fri Jun 16 09:57:37 2017

  ******************************************************************
  *                           E P A N E T                          *
  *                   Hydraulic and Water Quality                  *
  *                   Analysis for Pipe Networks                   *
  *                         Version 2.00.12                        *
  ******************************************************************
  
  Analysis begun Fri Jun 16 09:57:37 2017

  Analysis ended Fri Jun 16 09:57:37 2017
